demo/Sample/009bpa.DAT
(POWERFLOW,CASEID=EMS,PROJECT=TEST)
/P_INPUT_LIST,FULL\
/P_OUTPUT_LIST,FULL\
/P_ANALYSIS_RPT,LEVEL=4\
/NEW_BASE,FILE=009bpa.BSE\
/NETWORK_DATA\
.234567890*234567890*234567890*234567890*234567890*234567890*234567890*234567890
BS    Bus 1   16.5 1                      71.6499990-99991040                   
BQ    Bus 2   18.0 1                      163. 99990-99991025                   
BQ    Bus 3   13.8 1                      85.  99990-99991025                   
B     Bus 4   230. 1                                                            
B     Bus 5   230. 1125. 50.                                                    
B     Bus 6   230. 190.  30.                                                    
B     Bus 7   230. 1                                                            
B     Bus 8   230. 1100. 35.                                                    
B     Bus 9   230. 1                                                            
.234567890*234567890*234567890*234567890*234567890*234567890*234567890*234567890
L     Bus 8   230. Bus 7   230.       .0085 .072        .0745                   
L     Bus 8   230. Bus 9   230.       .0119 .1008       .1045                   
L     Bus 5   230. Bus 7   230.       .032  .161        .153                    
L     Bus 6   230. Bus 9   230.       .039  .17         .179                    
L     Bus 4   230. Bus 5   230.       .01   .085        .088                    
L     Bus 4   230. Bus 6   230.       .017  .092        .079                    
T     Bus 1   16.5 Bus 4   230.             .0576             16.5 230.         
T     Bus 2   18.0 Bus 7   230.             .0625             18.0 230.         
T     Bus 3   13.8 Bus 9   230.             .0586             13.8 230.         
.234567890*234567890*234567890*234567890*234567890*234567890*234567890*234567890
(END)